powerflow scaled loads and generation PSSE/new_8.csv
;Bus Name;Area Number;Zone Number;Volt (PU);Volt (KV);Angle (Deg);Gen MW;Gen MVAR;Load MW;Load MVAR;Shunt MW;Shunt MVAR;To Bus Name;MW;MVAR;Transformer Ratio;Transformer Angle (Deg);Percent;Rating
;101     NUC-A       21.600;1;77;1.0200;22.0320;3.8447;750.0000;116.0092;0.0000;0.0000;0.0000;-0.0000;;0.0000;0.0000;;0.0000;0;
;;0;0;0.0000;0.0000;0.0000;0.0000;0.0000;0.0000;0.0000;0.0000;0.0000;151     NUCPANT     500.00    1  1;749.9994;116.0092;1.000UN;0.0000;61;1250
;102     NUC-B       21.600;1;77;1.0200;22.0320;3.8447;750.0000;116.0092;0.0000;0.0000;0.0000;-0.0000;;0.0000;0.0000;;0.0000;0;
;;0;0;0.0000;0.0000;0.0000;0.0000;0.0000;0.0000;0.0000;0.0000;0.0000;151     NUCPANT     500.00    1  1;749.9994;116.0092;1.000UN;0.0000;61;1250
;151     NUCPANT     500.00;1;1;1.0073;503.6342;-1.8334;0.0000;0.0000;0.0000;0.0000;0.0000;608.7538;;0.0000;0.0000;;0.0000;0;
;;0;0;0.0000;0.0000;0.0000;0.0000;0.0000;0.0000;0.0000;0.0000;0.0000;101     NUC-A       21.600    1  1;-748.3386;-40.7206;1.000LK;0.0000;60;1250
;;0;0;0.0000;0.0000;0.0000;0.0000;0.0000;0.0000;0.0000;0.0000;0.0000;102     NUC-B       21.600    1  1;-748.3386;-40.7206;1.000LK;0.0000;60;1250
;;0;0;0.0000;0.0000;0.0000;0.0000;0.0000;0.0000;0.0000;0.0000;0.0000;152     MID500      500.00    1  1;443.7624;-117.0111;;0.0000;38;1200
;;0;0;0.0000;0.0000;0.0000;0.0000;0.0000;0.0000;0.0000;0.0000;0.0000;152     MID500      500.00    1  2;443.7624;-117.0111;;0.0000;38;1200
;;0;0;0.0000;0.0000;0.0000;0.0000;0.0000;0.0000;0.0000;0.0000;0.0000;201     HYDRO       500.00    2  1;609.1472;-293.2906;;0.0000;56;1200
;152     MID500      500.00;1;1;0.9888;494.4147;-13.5673;0.0000;0.0000;0.0000;0.0000;0.0000;-0.0000;;0.0000;0.0000;;0.0000;0;
;;0;0;0.0000;0.0000;0.0000;0.0000;0.0000;0.0000;0.0000;0.0000;0.0000;151     NUCPANT     500.00    1  1;-438.6220;-140.7095;;0.0000;39;1200
;;0;0;0.0000;0.0000;0.0000;0.0000;0.0000;0.0000;0.0000;0.0000;0.0000;151     NUCPANT     500.00    1  2;-438.6220;-140.7095;;0.0000;39;1200
;;0;0;0.0000;0.0000;0.0000;0.0000;0.0000;0.0000;0.0000;0.0000;0.0000;153     MID230      230.00    1  1;763.3373;374.8516;1.009LK;0.0000;34;2500
;;0;0;0.0000;0.0000;0.0000;0.0000;0.0000;0.0000;0.0000;0.0000;0.0000;202     EAST500     500.00    2  1;144.9301;9.1912;;0.0000;12;1200
;;0;0;0.0000;0.0000;0.0000;0.0000;0.0000;0.0000;0.0000;0.0000;0.0000;3004     WEST        500.00    5  1;-31.0313;-102.6240;;0.0000;0;
;153     MID230      230.00;1;1;0.9613;221.1009;-15.8901;0.0000;0.0000;229.7369;100.0000;0.0000;-0.0000;;0.0000;0.0000;;0.0000;0;
;;0;0;0.0000;0.0000;0.0000;0.0000;0.0000;0.0000;0.0000;0.0000;0.0000;152     MID500      500.00    1  1;-763.3373;-337.1732;1.000UN;0.0000;33;2500
;;0;0;0.0000;0.0000;0.0000;0.0000;0.0000;0.0000;0.0000;0.0000;0.0000;154     DOWNTN      230.00    1  1;311.9694;127.3978;;0.0000;117;300
;;0;0;0.0000;0.0000;0.0000;0.0000;0.0000;0.0000;0.0000;0.0000;0.0000;154     DOWNTN      230.00    1  2;259.9745;103.0845;;0.0000;97;300
;;0;0;0.0000;0.0000;0.0000;0.0000;0.0000;0.0000;0.0000;0.0000;0.0000;3006     UPTOWN      230.00    5  1;-38.3440;6.6917;;0.0000;0;
;154     DOWNTN      230.00;1;1;0.8942;205.6611;-24.8440;0.0000;0.0000;1148.6840;800.0000;0.0000;-239.8668;;0.0000;0.0000;;0.0000;0;
;;0;0;0.0000;0.0000;0.0000;0.0000;0.0000;0.0000;0.0000;0.0000;0.0000;153     MID230      230.00    1  1;-305.7605;-80.1364;;0.0000;118;300
;;0;0;0.0000;0.0000;0.0000;0.0000;0.0000;0.0000;0.0000;0.0000;0.0000;153     MID230      230.00    1  2;-254.8004;-69.4455;;0.0000;98;300
;;0;0;0.0000;0.0000;0.0000;0.0000;0.0000;0.0000;0.0000;0.0000;0.0000;203     EAST230     230.00    2  1;-133.7828;-64.5118;;0.0000;83;200
;;0;0;0.0000;0.0000;0.0000;0.0000;0.0000;0.0000;0.0000;0.0000;0.0000;205     SUB230      230.00    2  1;-259.2082;-282.9493;;0.0000;72;600
;;0;0;0.0000;0.0000;0.0000;0.0000;0.0000;0.0000;0.0000;0.0000;0.0000;3008     CATDOG      230.00    5  1;-195.1057;-63.0814;;0.0000;57;400
;201     HYDRO       500.00;2;2;1.0400;520.0000;-6.9650;0.0000;0.0000;0.0000;0.0000;0.0000;-324.4800;;0.0000;0.0000;;0.0000;0;
;;0;0;0.0000;0.0000;0.0000;0.0000;0.0000;0.0000;0.0000;0.0000;0.0000;151     NUCPANT     500.00    1  1;-604.9575;230.3639;;0.0000;52;1200
;;0;0;0.0000;0.0000;0.0000;0.0000;0.0000;0.0000;0.0000;0.0000;0.0000;202     EAST500     500.00    2  1;546.9252;123.1279;;0.0000;45;1200
;;0;0;0.0000;0.0000;0.0000;0.0000;0.0000;0.0000;0.0000;0.0000;0.0000;205     SUB230      230.00    2  &1;655.4327;182.3182;;0.0000;55;1200
;;0;0;0.0000;0.0000;0.0000;0.0000;0.0000;0.0000;0.0000;0.0000;0.0000;211     HYDRO_G     20.000    2  1;-597.4203;-211.2603;1.000LK;0.0000;79;800
;202     EAST500     500.00;2;2;0.9821;491.0666;-14.3962;0.0000;0.0000;0.0000;0.0000;0.0000;-0.0000;;0.0000;0.0000;;0.0000;0;
;;0;0;0.0000;0.0000;0.0000;0.0000;0.0000;0.0000;0.0000;0.0000;0.0000;152     MID500      500.00    1  1;-144.7329;-98.9890;;0.0000;15;1200
;;0;0;0.0000;0.0000;0.0000;0.0000;0.0000;0.0000;0.0000;0.0000;0.0000;201     HYDRO       500.00    2  1;-540.4048;-246.2419;;0.0000;50;1200
;;0;0;0.0000;0.0000;0.0000;0.0000;0.0000;0.0000;0.0000;0.0000;0.0000;203     EAST230     230.00    2  1;685.1285;345.2305;1.000LK;0.0000;96;800
;203     EAST230     230.00;2;2;0.9290;213.6683;-21.3177;0.0000;0.0000;344.6054;150.0000;0.0000;-43.1514;;0.0000;0.0000;;0.0000;0;
;;0;0;0.0000;0.0000;0.0000;0.0000;0.0000;0.0000;0.0000;0.0000;0.0000;154     DOWNTN      230.00    1  1;134.8614;66.9848;;0.0000;81;200
;;0;0;0.0000;0.0000;0.0000;0.0000;0.0000;0.0000;0.0000;0.0000;0.0000;202     EAST500     500.00    2  1;-682.6877;-246.0739;1.000UN;0.0000;91;800
;;0;0;0.0000;0.0000;0.0000;0.0000;0.0000;0.0000;0.0000;0.0000;0.0000;205     SUB230      230.00    2  1;101.6123;36.1209;;0.0000;58;200
;;0;0;0.0000;0.0000;0.0000;0.0000;0.0000;0.0000;0.0000;0.0000;0.0000;205     SUB230      230.00    2  2;101.6123;36.1209;;0.0000;58;200
;205     SUB230      230.00;2;2;0.9056;208.2834;-24.2984;0.0000;0.0000;1378.4220;700.0000;0.0000;-246.0225;;0.0000;0.0000;;0.0000;0;
;;0;0;0.0000;0.0000;0.0000;0.0000;0.0000;0.0000;0.0000;0.0000;0.0000;154     DOWNTN      230.00    1  1;259.8076;281.7094;;0.0000;71;600
;;0;0;0.0000;0.0000;0.0000;0.0000;0.0000;0.0000;0.0000;0.0000;0.0000;201     HYDRO       500.00    2  &1;-639.0666;-200.3953;1.000UN;0.0000;84;800
;;0;0;0.0000;0.0000;0.0000;0.0000;0.0000;0.0000;0.0000;0.0000;0.0000;203     EAST230     230.00    2  1;-100.9234;-36.6531;;0.0000;59;200
;;0;0;0.0000;0.0000;0.0000;0.0000;0.0000;0.0000;0.0000;0.0000;0.0000;203     EAST230     230.00    2  2;-100.9234;-36.6531;;0.0000;59;200
;;0;0;0.0000;0.0000;0.0000;0.0000;0.0000;0.0000;0.0000;0.0000;0.0000;206     URBGEN      18.000    2  1;-797.2853;-461.9776;1.000LK;0.0000;102;900
;206     URBGEN      18.000;2;2;0.9827;17.6894;-17.5177;799.9999;600.0000;0.0000;0.0000;0.0000;-0.0000;;0.0000;0.0000;;0.0000;0;
;;0;0;0.0000;0.0000;0.0000;0.0000;0.0000;0.0000;0.0000;0.0000;0.0000;205     SUB230      230.00    2  1;799.9773;599.9935;1.000UN;0.0000;111;900
;211     HYDRO_G     20.000;2;2;1.0939;21.8772;-0.6327;600.0000;290.2203;0.0000;0.0000;0.0000;-0.0000;;0.0000;0.0000;;0.0000;0;
;;0;0;0.0000;0.0000;0.0000;0.0000;0.0000;0.0000;0.0000;0.0000;0.0000;201     HYDRO       500.00    2  1;600.0190;290.1505;1.000UN;0.0000;83;800
;3001     MINE        230.00;5;5;1.0158;233.6429;-4.1102;0.0000;0.0000;0.0000;0.0000;0.0000;-0.0000;;0.0000;0.0000;;0.0000;0;
;;0;0;0.0000;0.0000;0.0000;0.0000;0.0000;0.0000;0.0000;0.0000;0.0000;3002     E. MINE     500.00    5  1;227.6293;40.0156;1.000LK;0.0000;29;800
;;0;0;0.0000;0.0000;0.0000;0.0000;0.0000;0.0000;0.0000;0.0000;0.0000;3003     S. MINE     230.00    5  1;533.6500;163.0276;;0.0000;0;
;;0;0;0.0000;0.0000;0.0000;0.0000;0.0000;0.0000;0.0000;0.0000;0.0000;3011     MINE_G      13.800    5  1;-761.2819;-203.0432;1.000LK;0.0000;61;1300
;3002     E. MINE     500.00;5;5;1.0098;504.9066;-6.0109;0.0000;0.0000;0.0000;0.0000;0.0000;-0.0000;;0.0000;0.0000;;0.0000;0;
;;0;0;0.0000;0.0000;0.0000;0.0000;0.0000;0.0000;0.0000;0.0000;0.0000;3001     MINE        230.00    5  1;-227.4740;-32.2510;1.000UN;0.0000;29;800
;;0;0;0.0000;0.0000;0.0000;0.0000;0.0000;0.0000;0.0000;0.0000;0.0000;3004     WEST        500.00    5  1;227.4736;32.2511;;0.0000;0;
;3003     S. MINE     230.00;5;5;1.0039;230.8923;-6.5095;0.0000;0.0000;0.0000;0.0000;0.0000;-0.0000;;0.0000;0.0000;;0.0000;0;
;;0;0;0.0000;0.0000;0.0000;0.0000;0.0000;0.0000;0.0000;0.0000;0.0000;3001     MINE        230.00    5  1;-533.6500;-138.8895;;0.0000;0;
;;0;0;0.0000;0.0000;0.0000;0.0000;0.0000;0.0000;0.0000;0.0000;0.0000;3005     WEST        230.00    5  1;266.8243;69.4448;;0.0000;0;
;;0;0;0.0000;0.0000;0.0000;0.0000;0.0000;0.0000;0.0000;0.0000;0.0000;3005     WEST        230.00    5  2;266.8243;69.4448;;0.0000;0;
;3004     WEST        500.00;5;5;0.9839;491.9378;-12.9845;0.0000;0.0000;0.0000;0.0000;0.0000;-0.0000;;0.0000;0.0000;;0.0000;0;
;;0;0;0.0000;0.0000;0.0000;0.0000;0.0000;0.0000;0.0000;0.0000;0.0000;152     MID500      500.00    1  1;31.0726;-140.1870;;0.0000;0;
;;0;0;0.0000;0.0000;0.0000;0.0000;0.0000;0.0000;0.0000;0.0000;0.0000;3002     E. MINE     500.00    5  1;-224.3491;-13.0757;;0.0000;0;
;;0;0;0.0000;0.0000;0.0000;0.0000;0.0000;0.0000;0.0000;0.0000;0.0000;3005     WEST        230.00    5  1;193.2749;153.2627;1.000LK;0.0000;31;800
;3005     WEST        230.00;5;5;0.9583;220.4062;-14.8561;0.0000;0.0000;114.8684;50.0000;0.0000;-0.0000;;0.0000;0.0000;;0.0000;0;
;;0;0;0.0000;0.0000;0.0000;0.0000;0.0000;0.0000;0.0000;0.0000;0.0000;3003     S. MINE     230.00    5  1;-262.2597;-37.0307;;0.0000;0;
;;0;0;0.0000;0.0000;0.0000;0.0000;0.0000;0.0000;0.0000;0.0000;0.0000;3003     S. MINE     230.00    5  2;-262.2597;-37.0307;;0.0000;0;
;;0;0;0.0000;0.0000;0.0000;0.0000;0.0000;0.0000;0.0000;0.0000;0.0000;3004     WEST        500.00    5  1;-193.0235;-143.0487;1.000UN;0.0000;30;800
;;0;0;0.0000;0.0000;0.0000;0.0000;0.0000;0.0000;0.0000;0.0000;0.0000;3006     UPTOWN      230.00    5  1;38.4224;-15.1784;;0.0000;0;
;;0;0;0.0000;0.0000;0.0000;0.0000;0.0000;0.0000;0.0000;0.0000;0.0000;3008     CATDOG      230.00    5  &1;339.9773;116.1582;;0.0000;0;
;;0;0;0.0000;0.0000;0.0000;0.0000;0.0000;0.0000;0.0000;0.0000;0.0000;3008     CATDOG      230.00    5  1;224.2715;66.1307;;0.0000;0;
;3006     UPTOWN      230.00;5;5;0.9607;220.9635;-15.5996;0.0000;0.0000;0.0000;0.0000;0.0000;-0.0000;;0.0000;0.0000;;0.0000;0;
;;0;0;0.0000;0.0000;0.0000;0.0000;0.0000;0.0000;0.0000;0.0000;0.0000;153     MID230      230.00    1  1;38.3606;-9.2629;;0.0000;0;
;;0;0;0.0000;0.0000;0.0000;0.0000;0.0000;0.0000;0.0000;0.0000;0.0000;3005     WEST        230.00    5  1;-38.3607;9.2629;;0.0000;0;
;3008     CATDOG      230.00;5;5;0.9138;210.1790;-21.9297;0.0000;0.0000;229.7369;75.0000;0.0000;-0.0000;;0.0000;0.0000;;0.0000;0;
;;0;0;0.0000;0.0000;0.0000;0.0000;0.0000;0.0000;0.0000;0.0000;0.0000;154     DOWNTN      230.00    1  1;196.4792;49.7541;;0.0000;55;400
;;0;0;0.0000;0.0000;0.0000;0.0000;0.0000;0.0000;0.0000;0.0000;0.0000;3005     WEST        230.00    5  &1;-105.6015;-12.8169;;0.0000;0;
;;0;0;0.0000;0.0000;0.0000;0.0000;0.0000;0.0000;0.0000;0.0000;0.0000;3005     WEST        230.00    5  1;-220.6498;-46.4708;;0.0000;0;
;;0;0;0.0000;0.0000;0.0000;0.0000;0.0000;0.0000;0.0000;0.0000;0.0000;3018     CATDOG_G    13.800    5  1;-99.9617;-65.4659;1.000LK;0.0000;80;150
;3011     MINE_G      13.800;5;5;1.0400;14.3520;0.0000;762.4850;263.2002;0.0000;0.0000;0.0000;-0.0000;;0.0000;0.0000;;0.0000;0;
;;0;0;0.0000;0.0000;0.0000;0.0000;0.0000;0.0000;0.0000;0.0000;0.0000;3001     MINE        230.00    5  1;762.4850;263.2002;1.000UN;0.0000;62;1300
;3018     CATDOG_G    13.800;5;5;0.9794;13.5151;-16.4907;100.0000;80.0000;0.0000;0.0000;0.0000;-0.0000;;0.0000;0.0000;;0.0000;0;
;;0;0;0.0000;0.0000;0.0000;0.0000;0.0000;0.0000;0.0000;0.0000;0.0000;3008     CATDOG      230.00    5  1;99.9976;79.9992;1.000UN;0.0000;85;150
